
  EPA STORM WATER MANAGEMENT MODEL - VERSION 5.1 (Build 5.1.013)
  --------------------------------------------------------------

  WARNING 04: minimum elevation drop used for Conduit C8
  WARNING 04: minimum elevation drop used for Conduit C14
  WARNING 04: minimum elevation drop used for Conduit C15
  WARNING 04: minimum elevation drop used for Conduit 52
  
  *********************************************************
  NOTE: The summary statistics displayed in this report are
  based on results found at every computational time step,  
  not just on results from each reporting time step.
  *********************************************************
  
  ****************
  Analysis Options
  ****************
  Flow Units ............... CFS
  Process Models:
    Rainfall/Runoff ........ YES
    RDII ................... NO
    Snowmelt ............... NO
    Groundwater ............ NO
    Flow Routing ........... YES
    Ponding Allowed ........ NO
    Water Quality .......... NO
  Infiltration Method ...... HORTON
  Flow Routing Method ...... KINWAVE
  Starting Date ............ 01/01/2004 01:00:00
  Ending Date .............. 12/31/2004 23:00:00
  Antecedent Dry Days ...... 0.0
  Report Time Step ......... 00:01:00
  Wet Time Step ............ 00:01:00
  Dry Time Step ............ 01:00:00
  Routing Time Step ........ 60.00 sec
  
  
  **************************        Volume         Depth
  Runoff Quantity Continuity     acre-feet        inches
  **************************     ---------       -------
  Total Precipitation ......      3304.698        64.780
  Evaporation Loss .........       195.773         3.838
  Infiltration Loss ........      2454.411        48.112
  Surface Runoff ...........       654.605        12.832
  Final Storage ............         0.000         0.000
  Continuity Error (%) .....        -0.003
  
  
  **************************        Volume        Volume
  Flow Routing Continuity        acre-feet      10^6 gal
  **************************     ---------     ---------
  Dry Weather Inflow .......         0.000         0.000
  Wet Weather Inflow .......       654.605       213.313
  Groundwater Inflow .......         0.000         0.000
  RDII Inflow ..............         0.000         0.000
  External Inflow ..........         0.000         0.000
  External Outflow .........       639.332       208.336
  Flooding Loss ............        59.163        19.279
  Evaporation Loss .........         2.561         0.834
  Exfiltration Loss ........         0.000         0.000
  Initial Stored Volume ....         0.000         0.000
  Final Stored Volume ......         0.017         0.006
  Continuity Error (%) .....        -7.099
  
  
  ********************************
  Highest Flow Instability Indexes
  ********************************
  All links are stable.
  
  
  *************************
  Routing Time Step Summary
  *************************
  Minimum Time Step           :    60.00 sec
  Average Time Step           :    60.00 sec
  Maximum Time Step           :    60.00 sec
  Percent in Steady State     :     0.00
  Average Iterations per Step :     1.03
  Percent Not Converging      :     0.00
  
  
  ***************************
  Subcatchment Runoff Summary
  ***************************
  
  ------------------------------------------------------------------------------------------------------------------------------
                            Total      Total      Total      Total     Imperv       Perv      Total       Total     Peak  Runoff
                           Precip      Runon       Evap      Infil     Runoff     Runoff     Runoff      Runoff   Runoff   Coeff
  Subcatchment                 in         in         in         in         in         in         in    10^6 gal      CFS
  ------------------------------------------------------------------------------------------------------------------------------
  S1                        64.78       0.00       4.07      48.29      12.21       0.21      12.42       22.73    24.16   0.192
  S2                        64.78       0.00       3.77      48.08      12.50       0.43      12.93        8.73    11.36   0.200
  S3                        64.78       0.00       3.73      48.03      12.55       0.48      13.02        7.32     9.93   0.201
  S4                        64.78       0.00       3.89      48.18      12.39       0.32      12.71       13.25    15.67   0.196
  S5                        64.78       0.00       3.58      47.82      12.69       0.69      13.39        3.55     5.67   0.207
  S6                        64.78       0.00       3.86      48.16      12.42       0.35      12.77       11.89    14.40   0.197
  S7                        64.78       0.00       4.05      48.28      12.23       0.22      12.46       21.08    22.71   0.192
  S8                        64.78       0.00       3.74      48.04      12.54       0.46      13.00        7.67    10.30   0.201
  S9                        64.78       0.00       3.73      48.03      12.55       0.48      13.03        7.21     9.82   0.201
  S10                       64.78       0.00       3.90      48.19      12.37       0.31      12.69       13.83    16.21   0.196
  S11                       64.78       0.00       3.82      48.13      12.46       0.38      12.83       10.50    13.09   0.198
  S12                       64.78       0.00       3.78      48.09      12.49       0.42      12.91        9.09    11.71   0.199
  S13                       64.78       0.00       3.66      47.94      12.62       0.57      13.19        5.30     7.77   0.204
  S14                       64.78       0.00       3.58      47.82      12.69       0.69      13.39        3.55     5.68   0.207
  S15                       64.78       0.00       3.64      47.91      12.64       0.60      13.23        4.88     7.28   0.204
  S16                       64.78       0.00       3.61      47.86      12.67       0.65      13.32        4.09     6.34   0.206
  S17                       64.78       0.00       3.57      47.80      12.70       0.71      13.41        3.38     5.45   0.207
  S18                       64.78       0.00       3.65      47.92      12.63       0.58      13.21        5.06     7.49   0.204
  S19                       64.78       0.00       3.85      48.15      12.43       0.35      12.78       11.51    14.05   0.197
  S20                       64.78       0.00       3.92      48.20      12.36       0.30      12.66       14.50    16.82   0.195
  S21                       64.78       0.00       3.71      48.00      12.57       0.51      13.08        6.61     9.20   0.202
  S22                       64.78       0.00       3.71      48.00      12.57       0.50      13.07        6.66     9.25   0.202
  S23                       64.78       0.00       3.72      48.02      12.55       0.48      13.04        7.16     9.77   0.201
  S24                       64.78       0.00       3.59      47.83      12.69       0.68      13.36        3.72     5.89   0.206
  
  
  ******************
  Node Depth Summary
  ******************
  
  ---------------------------------------------------------------------------------
                                 Average  Maximum  Maximum  Time of Max    Reported
                                   Depth    Depth      HGL   Occurrence   Max Depth
  Node                 Type         Feet     Feet     Feet  days hr:min        Feet
  ---------------------------------------------------------------------------------
  J1                   JUNCTION     0.01     0.57    22.57   143  15:01        0.57
  J2                   JUNCTION     0.17     3.00     6.00    97  22:38        3.00
  J3                   JUNCTION     0.23     3.00     7.00    97  22:50        3.00
  J4                   JUNCTION     0.11     3.00     7.00     5  12:27        3.00
  J5                   JUNCTION     0.01     1.29     6.29   143  15:01        1.29
  J6                   JUNCTION     0.01     0.78     4.78   143  15:01        0.78
  J7                   JUNCTION     0.08     3.00     7.00    97  22:07        3.00
  J8                   JUNCTION     0.01     1.12    11.12   143  15:02        1.12
  J9                   JUNCTION     0.01     0.77    16.77   143  15:01        0.77
  J10                  JUNCTION     0.02     1.30     5.30   143  15:03        1.30
  J11                  JUNCTION     0.00     0.22    35.22   143  15:01        0.22
  J12                  JUNCTION     0.01     0.67    35.67   143  15:01        0.67
  J13                  JUNCTION     0.01     0.56    10.56   143  15:01        0.56
  J14                  JUNCTION     0.00     0.39    17.39   143  15:01        0.39
  J15                  JUNCTION     0.00     0.25    45.25   143  15:01        0.25
  J16                  JUNCTION     0.02     1.61    10.61   143  15:01        1.61
  J17                  JUNCTION     0.08     3.00     6.00    97  22:29        3.00
  J18                  JUNCTION     0.00     0.20    60.20   143  15:01        0.20
  J19                  JUNCTION     0.00     0.19    55.19   143  15:01        0.19
  J20                  JUNCTION     0.15     3.00     7.00     5  12:55        3.00
  J21                  JUNCTION     0.18     3.00     7.00    97  22:45        3.00
  J22                  JUNCTION     0.00     0.31    30.31   143  15:01        0.31
  J23                  JUNCTION     0.01     0.97    11.97   143  15:01        0.97
  38                   JUNCTION     0.00     0.45     6.45   143  15:01        0.45
  39                   JUNCTION     0.02     1.00     7.00    97  22:07        1.00
  40                   JUNCTION     0.01     0.62     6.62   143  15:01        0.62
  41                   JUNCTION     0.13     3.00     6.00     5  12:44        3.00
  42                   JUNCTION     0.00     0.16    55.16   143  15:01        0.16
  O1                   OUTFALL      0.10     3.00     3.00   143  14:22        3.00
  O2                   OUTFALL      0.08     3.00     3.00    97  22:48        3.00
  O3                   OUTFALL      0.02     1.61     1.61   143  15:02        1.61
  
  
  *******************
  Node Inflow Summary
  *******************
  
  -------------------------------------------------------------------------------------------------
                                  Maximum  Maximum                  Lateral       Total        Flow
                                  Lateral    Total  Time of Max      Inflow      Inflow     Balance
                                   Inflow   Inflow   Occurrence      Volume      Volume       Error
  Node                 Type           CFS      CFS  days hr:min    10^6 gal    10^6 gal     Percent
  -------------------------------------------------------------------------------------------------
  J1                   JUNCTION     24.16    24.16   143  15:01        22.7        22.7       0.000
  J2                   JUNCTION      5.89    59.49   143  15:02        3.72        93.2      -0.000
  J3                   JUNCTION      9.77    26.44   143  15:01        7.16        44.9       0.000
  J4                   JUNCTION      9.25    24.76   143  15:01        6.66        19.9       0.000
  J5                   JUNCTION     22.49    22.49   143  15:01        18.1        18.1       0.000
  J6                   JUNCTION     14.05    14.05   143  15:01        11.5        11.5       0.000
  J7                   JUNCTION      6.34    22.48   143  15:01        4.09        17.9      -0.000
  J8                   JUNCTION      0.00    31.82   143  15:02           0        24.4       0.000
  J9                   JUNCTION     37.11    37.11   143  15:01          33          33       0.000
  J10                  JUNCTION      0.00    22.71   143  15:03           0        18.2       0.000
  J11                  JUNCTION     11.36    11.36   143  15:01        8.73        8.73       0.000
  J12                  JUNCTION      9.93     9.93   143  15:01        7.32        7.32       0.000
  J13                  JUNCTION     15.67    15.67   143  15:01        13.3        13.3       0.000
  J14                  JUNCTION     16.21    16.21   143  15:01        13.8        13.8       0.000
  J15                  JUNCTION     11.71    11.71   143  15:01        9.09        9.09      -0.000
  J16                  JUNCTION      5.68    44.91   143  15:01        3.55        33.3       0.000
  J17                  JUNCTION      0.00    73.19   143  15:02           0        83.7       0.000
  J18                  JUNCTION      9.82     9.82   143  15:01        7.21        7.21       0.000
  J19                  JUNCTION     10.30    10.30   143  15:01        7.67        7.67       0.000
  J20                  JUNCTION      5.45    20.31   143  15:01        3.38          28      -0.000
  J21                  JUNCTION      7.49    22.05   143  15:01        5.06        39.3       0.000
  J22                  JUNCTION     13.09    13.09   143  15:01        10.5        10.5       0.000
  J23                  JUNCTION      7.28    20.31   143  15:01        4.88        15.4       0.000
  38                   JUNCTION      0.00    11.34   143  15:01           0        8.72       0.000
  39                   JUNCTION      0.00     9.91   143  15:01           0        7.31      -0.000
  40                   JUNCTION      0.00    15.58   143  15:01           0        13.2       0.000
  41                   JUNCTION      9.20    30.39   143  15:01        6.61        24.9      -0.000
  42                   JUNCTION      7.77     7.77   143  15:01         5.3         5.3      -0.000
  O1                   OUTFALL       0.00    41.24    97  23:05           0        92.7       0.000
  O2                   OUTFALL       0.00    42.45   258  12:44           0        82.5       0.000
  O3                   OUTFALL       0.00    44.71   143  15:02           0        33.2       0.000
  
  
  *********************
  Node Flooding Summary
  *********************
  
  Flooding refers to all water that overflows a node, whether it ponds or not.
  --------------------------------------------------------------------------
                                                             Total   Maximum
                                 Maximum   Time of Max       Flood    Ponded
                        Hours       Rate    Occurrence      Volume    Volume
  Node                 Flooded       CFS   days hr:min    10^6 gal  1000 ft3
  --------------------------------------------------------------------------
  J2                      3.12     21.34    143  15:02       0.508     0.000
  J4                     58.10     21.76    143  15:01       5.164     0.000
  J7                     25.18     17.32    143  15:01       2.180     0.000
  J17                     4.53     33.61    143  15:02       1.122     0.000
  J20                    50.55     15.97    143  15:01       3.943     0.000
  39                     19.43      7.43    143  15:01       0.756     0.000
  41                     51.50     26.45    143  15:01       5.604     0.000
  
  
  ***********************
  Outfall Loading Summary
  ***********************
  
  -----------------------------------------------------------
                         Flow       Avg       Max       Total
                         Freq      Flow      Flow      Volume
  Outfall Node           Pcnt       CFS       CFS    10^6 gal
  -----------------------------------------------------------
  O1                    66.85      0.59     41.24      92.672
  O2                    57.32      0.61     42.45      82.454
  O3                    23.19      0.61     44.71      33.195
  -----------------------------------------------------------
  System                49.12      1.80     44.71     208.320
  
  
  ********************
  Link Flow Summary
  ********************
  
  -----------------------------------------------------------------------------
                                 Maximum  Time of Max   Maximum    Max/    Max/
                                  |Flow|   Occurrence   |Veloc|    Full    Full
  Link                 Type          CFS  days hr:min    ft/sec    Flow   Depth
  -----------------------------------------------------------------------------
  C1                   CONDUIT     24.10   143  15:02      9.42    0.05    0.19
  C5                   CONDUIT     22.71   143  15:03      3.52    0.22    0.43
  C7                   CONDUIT     41.24    97  23:05      6.49    1.08    1.00
  C8                   CONDUIT      2.93    97  22:50      0.25    1.00    1.00
  C9                   CONDUIT     26.58   143  15:04      3.31    0.29    0.50
  C10                  CONDUIT     14.10   143  15:02      3.86    0.09    0.26
  C11                  CONDUIT     37.04   143  15:02     10.33    0.09    0.25
  C12                  CONDUIT     42.45   258  12:44      7.05    1.08    1.00
  C13                  CONDUIT     16.14   143  15:01      9.67    0.03    0.13
  C14                  CONDUIT      5.09    97  22:34      0.34    1.00    1.00
  C15                  CONDUIT      4.29    97  22:45      0.27    1.00    1.00
  C16                  CONDUIT     22.05   143  15:02      4.39    0.14    0.34
  C17                  CONDUIT     10.26   143  15:01     12.75    0.01    0.06
  C18                  CONDUIT      9.77   143  15:01     11.74    0.01    0.07
  C19                  CONDUIT     13.03   143  15:01      9.99    0.02    0.10
  C20                  CONDUIT     20.29   143  15:02      4.31    0.13    0.32
  C21                  CONDUIT     31.69   143  15:03      5.58    0.17    0.37
  C22                  CONDUIT     44.71   143  15:02     11.65    0.56    0.54
  C23                  CONDUIT     11.66   143  15:01     11.18    0.01    0.08
  45                   CONDUIT     11.34   143  15:01     11.94    0.01    0.07
  46                   CONDUIT     11.29   143  15:01      5.65    0.04    0.15
  47                   CONDUIT      9.91   143  15:01     17.85    0.79    0.67
  48                   CONDUIT      2.65   132  18:04      4.02    1.08    1.00
  49                   CONDUIT     15.58   143  15:01      6.23    0.05    0.19
  50                   CONDUIT     15.56   143  15:02      5.47    0.06    0.21
  51                   CONDUIT     22.42   143  15:06      3.78    0.18    0.39
  52                   CONDUIT      3.86    97  22:38      0.26    1.00    1.00
  53                   CONDUIT      7.74   143  15:01     11.58    0.01    0.05
  
  
  *************************
  Conduit Surcharge Summary
  *************************
  
  ----------------------------------------------------------------------------
                                                           Hours        Hours 
                         --------- Hours Full --------   Above Full   Capacity
  Conduit                Both Ends  Upstream  Dnstream   Normal Flow   Limited
  ----------------------------------------------------------------------------
  C7                          3.05      3.05      3.05      3.02         3.05
  C8                         57.23     57.23     57.23     21.40        57.23
  C12                         4.43      4.43      4.43      4.38         4.43
  C14                        24.75     24.75     24.75     13.98        24.75
  C15                        49.95     49.95     49.95     29.85        49.95
  48                         19.10     19.10     19.10     18.93        19.10
  52                         50.75     50.75     50.75     30.65        50.75
  

  Analysis begun on:  Mon Feb 18 16:27:54 2019
  Analysis ended on:  Mon Feb 18 16:28:19 2019
  Total elapsed time: 00:00:25